!*  Turbine Input Parameters.
!
!svn $Id: turbine.in 617 2013-01-10 roc $
!=========================================================== Dr. Thomas Roc ===
!  Copyright (c) 2002-2012 The ROMS/TOMS Group                                !
!    Licensed under a MIT/X style license                                     !
!    See License_ROMS.txt                                                     !
!==============================================================================
!                                                                             !
! Input parameters can be entered in ANY order, provided that the parameter   !
! KEYWORD (usually, upper case) is typed correctly followed by "="  or "=="   !
! symbols. Any comment lines are allowed and must begin with an exclamation   !
! mark (!) in column one.  Comments may  appear to the right of a parameter   !
! specification to improve documentation.  Comments will be ignored  during   !
! reading.  Blank lines are also allowed and ignored. Continuation lines in   !
! a parameter specification are allowed and must be preceded by a backslash   !
! (\).  In some instances, more than one value is required for a parameter.   !
! If fewer values are provided, the  last value  is assigned for the entire   !
! parameter array.  The multiplication symbol (*),  without blank spaces in   !
! between, is allowed for a parameter specification.  For example, in a two   !
! grids nested application:                                                   !
!                                                                             !
!    AKT_BAK == 2*1.0d-6  2*5.0d-6              ! m2/s                        !
!                                                                             !
! indicates that the first two entries of array AKT_BAK,  in fortran column-  !
! major order, will have the same value of "1.0d-6" for grid 1,  whereas the  !
! next two entries will have the same value of "5.0d-6" for grid 2.           !
!                                                                             !
! In multiple levels of nesting and/or multiple connected domains  step-ups,  !
! "Ngrids" entries are expected for some of these parameters.  In such case,  !
! the order of the entries for a parameter is extremely important.  It  must  !
! follow the same order (1:Ngrids) as in the state variable declaration. The  !
! USER may follow the above guidelines for specifying his/her values.  These  !
! parameters are marked by "==" plural symbol after the KEYWORD.              !
!                                                                             !
!==============================================================================
!
! Switch to control the computation of turbine effects within nested
! and/or multiple connected grids, [1:Ngrids].
!
     Lturbines == T

! Number of turbines to deploy in each nested grid.  These values are
! essential because the  turbine arrays are dynamically
! allocated using these values, [1:Ngrids].

     NTURBINES == 1

! Turbine locations and parameters for all grids:
!
!   G      Nested grid number
!   xpos   Turbine X-location (m)
!   ypos   Turbine Y-location (m)
!   zpos   Turbine Z-location in depth ratio (i.e. hub height / water-column depth)
!   Ct     Thrust coefficient
!   Ctke   Turbulent kinetic energy correction parameter
!   Cgls   Generic length scale correction parameter
!   Lc     Blade chord length (m)
!   Pa     Pitch angle (radians)
!   Diam   Turbine rotor diameter(m)
! WARNING: Turbine hub (x,y) should coincide with (x,y) rho-coordinates !*

POS = G, C,    xpos,    ypos,  zpos,   Ct,   Ctke,  Cgls,   Lc,   Pa,  Diam

      1  1    4.010   0.6750    0.5  0.92    0.05    4.0  0.002  0.52   0.1

!*
!  GLOSSARY:
!  =========
!
!  This input file provides the initial locations of the float trajectories
!  to compute.
!
!------------------------------------------------------------------------------
! Control Switches.
!------------------------------------------------------------------------------
!
! Lturbines   Switch to control the computation of floats trajectories within
!             nested and/or multiple connected grids. Ngrids values are
!             expected. By default this switch is set to TRUE in "mod_scalars"
!             for all grids when the CPP option FLOATS is activated. The
!             USER can control which grid to process by turning on/off this
!             switch.
!
!------------------------------------------------------------------------------
! Number of turbines.
!------------------------------------------------------------------------------
!
!  NTURBINES   Number of turbines to deploy in each nested grid.  Provide
!              the exact number of turbines.  These values are used to
!              dynamically allocate the arrays in TURBINES structure.
!
!------------------------------------------------------------------------------
! Initial float location KEYWORDS.  The model variable name is not used as
! keyword in some parameters.  However, it namce is provided in brackets.
!------------------------------------------------------------------------------
!
!  G         Nested grid number [ng].
!
!  C         Initial horizontal location coordinate type [Fcoor]:
!
!              Fcoor = 0,  rho grid units
!                             0.5 =< Fx0 =< Lm(ng)+0.5,
!                             0.5 =< Fy0 =< Mm(ng)+0.5
!
!              Fcoor = 1,  Fx0 is longitude (west values are negative).
!                          Fy0 is latitude (south values are negative).
!
!  Fx0       Initial float x-location (real; grid units or longitude).
!
!  Fy0       Initial float y-location (real; grid units or latitude).
!
!  Fz0       Initial float z-location (real; vertical level or depth).
!              If Fz0 is less than or equal to zero, Fz0 is the initial
!              depth in meters.  Otherwise, if Fz0 is positive and
!
!                             0 < Fz0 =< N(ng),
!
!              Fz0 is the initial position relative to the W grid
!              (0 = bottom; N = surface).
!
!              If the float trajectory type is Isobaric (Ftype=2) or
!              Geopotential (Ftype=3), Fz0 must be a negative number
!              representing depth in meters. If the float type is
!              Lagrangian (Ftype=1), Fz0 can be a level (positive) or
!              a depth in meters (negative).
!
!              WARNING: If the depth in meters at particular horizontal
!                       is not bounded, the floats are released at the
!                       surface.                                          !*
