/*
vn $Id: my_application.h 139 2008-01-10 00:17:29Z arango $
*******************************************************************************
** Copyright (c) 2002-2008 The ROMS/TOMS Group                               **
**   Licensed under a MIT/X style license                                    **
**   See License_ROMS.txt                                                    **
*******************************************************************************
**
** Simple channel model
**
** Application flag:   VALIDATION
** Input script:       ocean_validation.in                   
*/

#define SOLVE3D
#define UV_ADV
#define UV_VIS2
#define MIX_S_UV
#undef UV_COR
#define GLS_MIXING
#define CANUTO_B
#define UV_LOGDRAG

#define AVERAGES
#define PERFECT_RESTART

#define ANA_GRID
#define ANA_INITIAL
#define ANA_FSOBC
#define ANA_SMFLUX
#define ANA_STFLUX
#define ANA_BTFLUX
#define ANA_M3OBC
#define ANA_M2OBC
#define ANA_MASK

#define TIDAL_TURBINE

#define SPONGE
#define RADIATION_2D
